2024_89_CemigReconfigurationCases/1_AlimsCemig/NLAE713/NLAE713CargaBT_Dez.dss
new load.3001604414M1 bus1=RML1054573444.1.2.3.0,Phases=3,kv=0.22,kW=2.13484,pf=0.92,Vminpu=0.92,Vmaxpu=1.5,model=1,daily=RES4_11,status=variable
new load.3001604415M1 bus1=RML1054231760.1.2.3.0,Phases=3,kv=0.22,kW=1.76854,pf=0.92,Vminpu=0.92,Vmaxpu=1.5,model=1,daily=RES5_10,status=variable
new load.3001604416M1 bus1=RML1054231774.1.2.3.0,Phases=3,kv=0.22,kW=1.49758,pf=0.92,Vminpu=0.92,Vmaxpu=1.5,model=1,daily=RES4_11,status=variable
new load.3001604417M1 bus1=RML1054231732.1.2.3.0,Phases=3,kv=0.22,kW=2.11564,pf=0.92,Vminpu=0.92,Vmaxpu=1.5,model=1,daily=RES3_9,status=variable
new load.3001604418M1 bus1=RML1054231767.1.2.3.0,Phases=3,kv=0.22,kW=2.30334,pf=0.92,Vminpu=0.92,Vmaxpu=1.5,model=1,daily=RES5_10,status=variable
new load.3001604419M1 bus1=RML1054231802.1.2.3.0,Phases=3,kv=0.22,kW=2.46218,pf=0.92,Vminpu=0.92,Vmaxpu=1.5,model=1,daily=RES5_10,status=variable
new load.3001604421M1 bus1=RML1054573437.1.2.3.0,Phases=3,kv=0.22,kW=1.28326,pf=0.92,Vminpu=0.92,Vmaxpu=1.5,model=1,daily=RES6_10,status=variable
new load.3001604568M1 bus1=RML1054747198.1.2.3.0,Phases=3,kv=0.22,kW=1.67768,pf=0.92,Vminpu=0.92,Vmaxpu=1.5,model=1,daily=RES2_8,status=variable
new load.3001604570M1 bus1=RML1054747191.1.2.3.0,Phases=3,kv=0.22,kW=1.69414,pf=0.92,Vminpu=0.92,Vmaxpu=1.5,model=1,daily=RES6_10,status=variable
new load.3001604579M1 bus1=RML1054204698.1.2.3.0,Phases=3,kv=0.22,kW=4.01302,pf=0.92,Vminpu=0.92,Vmaxpu=1.5,model=1,daily=RES6_10,status=variable
new load.3001604580M1 bus1=RML1054204705.1.2.3.0,Phases=3,kv=0.22,kW=2.60458,pf=0.92,Vminpu=0.92,Vmaxpu=1.5,model=1,daily=RES3_9,status=variable
new load.3001604593M1 bus1=RML1054221029.1.2.3.0,Phases=3,kv=0.22,kW=0.77672,pf=0.92,Vminpu=0.92,Vmaxpu=1.5,model=1,daily=RES6_10,status=variable
new load.3001604599M1 bus1=RML1054220882.1.2.3.0,Phases=3,kv=0.22,kW=1.54856,pf=0.92,Vminpu=0.92,Vmaxpu=1.5,model=1,daily=RES4_11,status=variable
new load.3001604600M1 bus1=RML1054220938.1.2.3.0,Phases=3,kv=0.22,kW=1.93092,pf=0.92,Vminpu=0.92,Vmaxpu=1.5,model=1,daily=RES4_11,status=variable
new load.3001604601M1 bus1=RML1054221001.1.2.3.0,Phases=3,kv=0.22,kW=2.27156,pf=0.92,Vminpu=0.92,Vmaxpu=1.5,model=1,daily=RES5_10,status=variable
new load.3001604602M1 bus1=RML1054221008.1.2.3.0,Phases=3,kv=0.22,kW=3.49472,pf=0.92,Vminpu=0.92,Vmaxpu=1.5,model=1,daily=RES5_10,status=variable
new load.3001604603M1 bus1=RML1054220945.1.2.3.0,Phases=3,kv=0.22,kW=1.57898,pf=0.92,Vminpu=0.92,Vmaxpu=1.5,model=1,daily=RES2_8,status=variable
new load.3001604604M1 bus1=RML1054220966.1.2.3.0,Phases=3,kv=0.22,kW=2.69862,pf=0.92,Vminpu=0.92,Vmaxpu=1.5,model=1,daily=RES3_9,status=variable
new load.3001604606M1 bus1=RML1054220924.1.2.3.0,Phases=3,kv=0.22,kW=2.10212,pf=0.92,Vminpu=0.92,Vmaxpu=1.5,model=1,daily=RES5_10,status=variable
new load.3001604607M1 bus1=RML1054220917.1.2.3.0,Phases=3,kv=0.22,kW=2.64466,pf=0.92,Vminpu=0.92,Vmaxpu=1.5,model=1,daily=RES4_11,status=variable
new load.3001604609M1 bus1=RML1054220861.1.2.3.0,Phases=3,kv=0.22,kW=2.90424,pf=0.92,Vminpu=0.92,Vmaxpu=1.5,model=1,daily=RES6_10,status=variable
new load.3001604610M1 bus1=RML1054231739.1.2.3.0,Phases=3,kv=0.22,kW=2.56698,pf=0.92,Vminpu=0.92,Vmaxpu=1.5,model=1,daily=RES3_9,status=variable
new load.3001604611M1 bus1=RML1054314969.1.2.3.0,Phases=3,kv=0.22,kW=2.3611,pf=0.92,Vminpu=0.92,Vmaxpu=1.5,model=1,daily=RES6_10,status=variable
new load.3001604612M1 bus1=RML1054314983.1.2.3.0,Phases=3,kv=0.22,kW=2.63164,pf=0.92,Vminpu=0.92,Vmaxpu=1.5,model=1,daily=RES5_10,status=variable
new load.3001604613M1 bus1=RML1054315004.1.2.3.0,Phases=3,kv=0.22,kW=2.59986,pf=0.92,Vminpu=0.92,Vmaxpu=1.5,model=1,daily=RES5_10,status=variable
new load.3001604614M1 bus1=RML1054315011.1.2.3.0,Phases=3,kv=0.22,kW=2.15396,pf=0.92,Vminpu=0.92,Vmaxpu=1.5,model=1,daily=RES4_11,status=variable
new load.3001604615M1 bus1=RML1054315018.1.2.3.0,Phases=3,kv=0.22,kW=4.64374,pf=0.92,Vminpu=0.92,Vmaxpu=1.5,model=1,daily=RES5_10,status=variable
new load.3001604616M1 bus1=RML1054315046.1.2.3.0,Phases=3,kv=0.22,kW=3.17702,pf=0.92,Vminpu=0.92,Vmaxpu=1.5,model=1,daily=RES5_10,status=variable
new load.3001604617M1 bus1=RML1054314990.1.2.3.0,Phases=3,kv=0.22,kW=2.15324,pf=0.92,Vminpu=0.92,Vmaxpu=1.5,model=1,daily=RES3_9,status=variable
new load.3001604618M1 bus1=RML1054314976.1.2.3.0,Phases=3,kv=0.22,kW=1.08018,pf=0.92,Vminpu=0.92,Vmaxpu=1.5,model=1,daily=RES5_10,status=variable
new load.3001604619M1 bus1=RML1054314948.2.3.0,Phases=2,kv=0.22,kW=2.2177,pf=0.92,Vminpu=0.92,Vmaxpu=1.5,model=1,daily=RES4_11,status=variable
new load.3001604620M1 bus1=RML1054314934.1.2.3.0,Phases=3,kv=0.22,kW=1.91818,pf=0.92,Vminpu=0.92,Vmaxpu=1.5,model=1,daily=RES4_11,status=variable
new load.3001604622M1 bus1=RML1054314913.1.2.3.0,Phases=3,kv=0.22,kW=2.75342,pf=0.92,Vminpu=0.92,Vmaxpu=1.5,model=1,daily=RES5_10,status=variable
new load.3001604634M1 bus1=RML1054231816.1.2.3.0,Phases=3,kv=0.22,kW=0.8191,pf=0.92,Vminpu=0.92,Vmaxpu=1.5,model=1,daily=RES2_8,status=variable
new load.3001604635M1 bus1=RML1054231788.1.2.3.0,Phases=3,kv=0.22,kW=2.47366,pf=0.92,Vminpu=0.92,Vmaxpu=1.5,model=1,daily=RES6_10,status=variable
new load.3001604636M1 bus1=RML1054231697.1.2.3.0,Phases=3,kv=0.22,kW=5.38916,pf=0.92,Vminpu=0.92,Vmaxpu=1.5,model=1,daily=RES6_10,status=variable
new load.3001604657M1 bus1=RML1051447636.1.2.0,Phases=2,kv=0.22,kW=2.04042,pf=0.92,Vminpu=0.92,Vmaxpu=1.5,model=1,daily=RES3_9,status=variable
new load.3003317964M1 bus1=RML1054231711.1.2.3.0,Phases=3,kv=0.22,kW=3.47826,pf=0.92,Vminpu=0.92,Vmaxpu=1.5,model=1,daily=RES3_1,status=variable
new load.3003497631M1 bus1=RML1054314941.1.2.3.0,Phases=3,kv=0.22,kW=10.01772,pf=0.92,Vminpu=0.92,Vmaxpu=1.5,model=1,daily=RES6_5,status=variable
new load.3003796584M1 bus1=RML1054220973.1.2.3.0,Phases=3,kv=0.22,kW=1.52332,pf=0.92,Vminpu=0.92,Vmaxpu=1.5,model=1,daily=COM2_10,status=variable
new load.3003876927M1 bus1=RML1054314962.1.2.3.0,Phases=3,kv=0.22,kW=1.96646,pf=0.92,Vminpu=0.92,Vmaxpu=1.5,model=1,daily=COM2_12,status=variable
new load.3003877674M1 bus1=RML1054725785.1.2.3.0,Phases=3,kv=0.22,kW=0.91188,pf=0.92,Vminpu=0.92,Vmaxpu=1.5,model=1,daily=COM1_13,status=variable
new load.3004077870M1 bus1=RML1054725778.1.2.3.0,Phases=3,kv=0.22,kW=1.68626,pf=0.92,Vminpu=0.92,Vmaxpu=1.5,model=1,daily=RES5_16,status=variable
new load.3004495084M1 bus1=RML1054412430.1.2.0,Phases=2,kv=0.22,kW=0.20794,pf=0.92,Vminpu=0.92,Vmaxpu=1.5,model=1,daily=COM1_4,status=variable
new load.3004680845M1 bus1=RML1054231725.1.2.3.0,Phases=3,kv=0.22,kW=1.13786,pf=0.92,Vminpu=0.92,Vmaxpu=1.5,model=1,daily=RES5_7,status=variable
new load.3005259949M1 bus1=RML1054220910.1.2.3.0,Phases=3,kv=0.22,kW=1.23024,pf=0.92,Vminpu=0.92,Vmaxpu=1.5,model=1,daily=RES4_19,status=variable
new load.3005309094M1 bus1=RML1054301746.1.2.3.0,Phases=3,kv=0.22,kW=25.05446,pf=0.92,Vminpu=0.92,Vmaxpu=1.5,model=1,daily=IND4_18,status=variable
new load.3003340560M1 bus1=RML1054314920.1.2.3.0,Phases=3,kv=0.22,kW=4.22306,pf=0.92,Vminpu=0.92,Vmaxpu=1.5,model=1,daily=RES4_2,status=variable
new load.3003480439M1 bus1=RML1054231704.1.2.3.0,Phases=3,kv=0.22,kW=2.03882,pf=0.92,Vminpu=0.92,Vmaxpu=1.5,model=1,daily=RES4_5,status=variable
new load.3004016741M1 bus1=RML1056617696.1.2.3.0,Phases=3,kv=0.22,kW=1.4745,pf=0.92,Vminpu=0.92,Vmaxpu=1.5,model=1,daily=RES4_16,status=variable
new load.3004820007M1 bus1=RML1054204691.1.2.3.0,Phases=3,kv=0.22,kW=3.39954,pf=0.92,Vminpu=0.92,Vmaxpu=1.5,model=1,daily=RES6_10,status=variable
new load.3004902201M1 bus1=RML1056617738.1.0,Phases=1,kv=0.127,kW=2.16896,pf=0.92,Vminpu=0.92,Vmaxpu=1.5,model=1,daily=COM1_12,status=variable
new load.3004962998M1 bus1=RML1054257667.1.2.3.0,Phases=3,kv=0.22,kW=10.50788,pf=0.92,Vminpu=0.92,Vmaxpu=1.5,model=1,daily=RES6_11,status=variable
new load.3005058819M1 bus1=RML1054315039.1.2.3.0,Phases=3,kv=0.22,kW=1.3333,pf=0.92,Vminpu=0.92,Vmaxpu=1.5,model=1,daily=RES3_13,status=variable
new load.3005143005M1 bus1=RML1054276518.1.2.3.0,Phases=3,kv=0.22,kW=2.61992,pf=0.92,Vminpu=0.92,Vmaxpu=1.5,model=1,daily=RES6_12,status=variable
new load.3005205465M1 bus1=RML1051444318.1.2.3.0,Phases=3,kv=0.22,kW=1.25486,pf=0.92,Vminpu=0.92,Vmaxpu=1.5,model=1,daily=RES4_18,status=variable
new load.3005205466M1 bus1=RML1051444318.1.2.3.0,Phases=3,kv=0.22,kW=1.2319,pf=0.92,Vminpu=0.92,Vmaxpu=1.5,model=1,daily=RES4_18,status=variable
new load.3005205467M1 bus1=RML1051444318.1.2.3.0,Phases=3,kv=0.22,kW=1.03542,pf=0.92,Vminpu=0.92,Vmaxpu=1.5,model=1,daily=RES2_19,status=variable
new load.3005205468M1 bus1=RML1051444318.1.2.3.0,Phases=3,kv=0.22,kW=1.5112,pf=0.92,Vminpu=0.92,Vmaxpu=1.5,model=1,daily=RES4_18,status=variable
new load.3005410372M1 bus1=RML1054154599.1.2.3.0,Phases=3,kv=0.22,kW=1.1294,pf=0.92,Vminpu=0.92,Vmaxpu=1.5,model=1,daily=RES4_20,status=variable
new load.3005431597M1 bus1=RML1054154599.1.2.3.0,Phases=3,kv=0.22,kW=0.72914,pf=0.92,Vminpu=0.92,Vmaxpu=1.5,model=1,daily=RES4_20,status=variable
new load.3005431599M1 bus1=RML1054479581.1.2.3.0,Phases=3,kv=0.22,kW=0.22712,pf=0.92,Vminpu=0.92,Vmaxpu=1.5,model=1,daily=COM1_26,status=variable
new load.3005456439M1 bus1=RML1054479581.1.2.3.0,Phases=3,kv=0.22,kW=0.203,pf=0.92,Vminpu=0.92,Vmaxpu=1.5,model=1,daily=COM1_1,status=variable
new load.3005456440M1 bus1=RML1054479581.1.2.3.0,Phases=3,kv=0.22,kW=0.1218,pf=0.92,Vminpu=0.92,Vmaxpu=1.5,model=1,daily=COM1_1,status=variable
new load.3005601231M1 bus1=RML1054313030.1.2.3.0,Phases=3,kv=0.22,kW=2.09044,pf=0.92,Vminpu=0.92,Vmaxpu=1.5,model=1,daily=RES2_3,status=variable
new load.3005601232M1 bus1=RML1054313030.1.2.3.0,Phases=3,kv=0.22,kW=1.47352,pf=0.92,Vminpu=0.92,Vmaxpu=1.5,model=1,daily=RES3_4,status=variable
new load.3005601233M1 bus1=RML1054313030.1.2.3.0,Phases=3,kv=0.22,kW=1.10056,pf=0.92,Vminpu=0.92,Vmaxpu=1.5,model=1,daily=RES3_4,status=variable
new load.3005601234M1 bus1=RML1054313030.1.2.3.0,Phases=3,kv=0.22,kW=6.2579,pf=0.92,Vminpu=0.92,Vmaxpu=1.5,model=1,daily=RES6_5,status=variable
new load.3005601235M1 bus1=RML1054313030.1.2.3.0,Phases=3,kv=0.22,kW=1.40678,pf=0.92,Vminpu=0.92,Vmaxpu=1.5,model=1,daily=RES2_3,status=variable
new load.3005601236M1 bus1=RML1054313030.1.2.3.0,Phases=3,kv=0.22,kW=2.68562,pf=0.92,Vminpu=0.92,Vmaxpu=1.5,model=1,daily=RES4_5,status=variable
new load.3005639197M1 bus1=RML1054437742.1.2.3.0,Phases=3,kv=0.22,kW=148.89904,pf=0.92,Vminpu=0.92,Vmaxpu=1.5,model=1,daily=COM4_3,status=variable
new load.3005700180M1 bus1=RML1054257667.1.2.3.0,Phases=3,kv=0.22,kW=0.48712,pf=0.92,Vminpu=0.92,Vmaxpu=1.5,model=1,daily=RES2_5,status=variable
new load.3005701121M1 bus1=RML1054479581.1.2.3.0,Phases=3,kv=0.22,kW=0.19346,pf=0.92,Vminpu=0.92,Vmaxpu=1.5,model=1,daily=COM1_5,status=variable
new load.3003507484M1 bus1=RML1054231795.1.2.3.0,Phases=3,kv=0.22,kW=1.54078,pf=0.92,Vminpu=0.92,Vmaxpu=1.5,model=1,daily=RES3_4,status=variable
new load.3003692486M1 bus1=RML1054220889.1.2.3.0,Phases=3,kv=0.22,kW=1.70212,pf=0.92,Vminpu=0.92,Vmaxpu=1.5,model=1,daily=RES3_7,status=variable
new load.3003695382M1 bus1=RML1054166478.1.2.3.0,Phases=3,kv=0.22,kW=2.0914,pf=0.92,Vminpu=0.92,Vmaxpu=1.5,model=1,daily=RES5_8,status=variable
new load.3004665916M1 bus1=RML1054479581.1.2.3.0,Phases=3,kv=0.22,kW=4.99556,pf=0.92,Vminpu=0.92,Vmaxpu=1.5,model=1,daily=COM3_3,status=variable
new load.3004707905M1 bus1=RML1054154592.1.2.3.0,Phases=3,kv=0.22,kW=7.8575,pf=0.92,Vminpu=0.92,Vmaxpu=1.5,model=1,daily=RES6_8,status=variable
new load.3004711440M1 bus1=RML1054262140.1.2.3.0,Phases=3,kv=0.22,kW=13.2455,pf=0.92,Vminpu=0.92,Vmaxpu=1.5,model=1,daily=RES6_8,status=variable
new load.3005042091M1 bus1=RML1054220007.1.2.3.0,Phases=3,kv=0.22,kW=8.57426,pf=0.92,Vminpu=0.92,Vmaxpu=1.5,model=1,daily=RES6_12,status=variable
new load.3005402525M1 bus1=RML1056424916.1.2.3.0,Phases=3,kv=0.22,kW=0.18628,pf=0.92,Vminpu=0.92,Vmaxpu=1.5,model=1,daily=COM1_25,status=variable
new load.3005402526M1 bus1=RML1056424916.1.2.3.0,Phases=3,kv=0.22,kW=0.12896,pf=0.92,Vminpu=0.92,Vmaxpu=1.5,model=1,daily=COM1_25,status=variable
new load.3005402527M1 bus1=RML1054479581.1.2.3.0,Phases=3,kv=0.22,kW=0.0215,pf=0.92,Vminpu=0.92,Vmaxpu=1.5,model=1,daily=COM1_25,status=variable
new load.3005402528M1 bus1=RML1054479581.1.2.3.0,Phases=3,kv=0.22,kW=0.1612,pf=0.92,Vminpu=0.92,Vmaxpu=1.5,model=1,daily=COM1_25,status=variable
new load.3005402529M1 bus1=RML1054479581.1.2.3.0,Phases=3,kv=0.22,kW=2.78544,pf=0.92,Vminpu=0.92,Vmaxpu=1.5,model=1,daily=COM2_27,status=variable
new load.3005402530M1 bus1=RML1054479581.1.2.3.0,Phases=3,kv=0.22,kW=70.89928,pf=0.92,Vminpu=0.92,Vmaxpu=1.5,model=1,daily=COM4_22,status=variable
new load.3005535410M1 bus1=RML1054231781.1.2.3.0,Phases=3,kv=0.22,kW=2.27666,pf=0.92,Vminpu=0.92,Vmaxpu=1.5,model=1,daily=RES4_3,status=variable
new load.3005586008M1 bus1=RML1054231746.1.2.3.0,Phases=3,kv=0.22,kW=4.49192,pf=0.92,Vminpu=0.92,Vmaxpu=1.5,model=1,daily=RES5_5,status=variable
new load.3005671880M1 bus1=RML1056927341.1.2.3.0,Phases=3,kv=0.22,kW=0.8395,pf=0.92,Vminpu=0.92,Vmaxpu=1.5,model=1,daily=COM2_3,status=variable
new load.3005716152M1 bus1=RML1051444325.1.2.3.0,Phases=3,kv=0.22,kW=0.2928,pf=0.92,Vminpu=0.92,Vmaxpu=1.5,model=1,daily=COM1_5,status=variable
new load.3005716153M1 bus1=RML1051444325.1.2.3.0,Phases=3,kv=0.22,kW=0.32678,pf=0.92,Vminpu=0.92,Vmaxpu=1.5,model=1,daily=COM1_5,status=variable
new load.3005716154M1 bus1=RML1051444325.1.2.3.0,Phases=3,kv=0.22,kW=0.2379,pf=0.92,Vminpu=0.92,Vmaxpu=1.5,model=1,daily=COM1_5,status=variable
new load.3005716155M1 bus1=RML1051444325.1.2.3.0,Phases=3,kv=0.22,kW=0.1464,pf=0.92,Vminpu=0.92,Vmaxpu=1.5,model=1,daily=COM1_5,status=variable
new load.3005716156M1 bus1=RML1051444325.1.2.3.0,Phases=3,kv=0.22,kW=0.3294,pf=0.92,Vminpu=0.92,Vmaxpu=1.5,model=1,daily=COM1_5,status=variable
new load.3005716157M1 bus1=RML1051444325.1.2.3.0,Phases=3,kv=0.22,kW=0.2928,pf=0.92,Vminpu=0.92,Vmaxpu=1.5,model=1,daily=COM1_5,status=variable
new load.3005716158M1 bus1=RML1051444325.1.2.3.0,Phases=3,kv=0.22,kW=0.2379,pf=0.92,Vminpu=0.92,Vmaxpu=1.5,model=1,daily=COM1_5,status=variable
new load.3003705712M1 bus1=RML1054725806.1.2.3.0,Phases=3,kv=0.22,kW=1.54168,pf=0.92,Vminpu=0.92,Vmaxpu=1.5,model=1,daily=RES3_7,status=variable
new load.3003912927M1 bus1=RML1054566409.1.2.3.0,Phases=3,kv=0.22,kW=2.85834,pf=0.92,Vminpu=0.92,Vmaxpu=1.5,model=1,daily=RES5_13,status=variable
new load.3004123648M1 bus1=RML1054231809.1.2.3.0,Phases=3,kv=0.22,kW=1.5093,pf=0.92,Vminpu=0.92,Vmaxpu=1.5,model=1,daily=RES3_15,status=variable
new load.3004244993M1 bus1=RML1054204712.1.2.3.0,Phases=3,kv=0.22,kW=0.82764,pf=0.92,Vminpu=0.92,Vmaxpu=1.5,model=1,daily=RES3_19,status=variable
new load.3004857051M1 bus1=RML1054301753.1.2.3.0,Phases=3,kv=0.22,kW=18.69182,pf=0.92,Vminpu=0.92,Vmaxpu=1.5,model=1,daily=IND4_6,status=variable
new load.3005171223M1 bus1=RML1051444318.1.2.3.0,Phases=3,kv=0.22,kW=1.8699,pf=0.92,Vminpu=0.92,Vmaxpu=1.5,model=1,daily=RES5_16,status=variable
new load.3005297832M1 bus1=RML1051444318.1.2.3.0,Phases=3,kv=0.22,kW=0.81154,pf=0.92,Vminpu=0.92,Vmaxpu=1.5,model=1,daily=RES3_19,status=variable
new load.3005338881M1 bus1=RML1051444318.1.2.3.0,Phases=3,kv=0.22,kW=0.49272,pf=0.92,Vminpu=0.92,Vmaxpu=1.5,model=1,daily=RES3_19,status=variable
new load.3005423171M1 bus1=RML1054154599.1.2.3.0,Phases=3,kv=0.22,kW=0.66434,pf=0.92,Vminpu=0.92,Vmaxpu=1.5,model=1,daily=RES3_20,status=variable
new load.3005426990M1 bus1=RML1054154599.1.2.3.0,Phases=3,kv=0.22,kW=0.73476,pf=0.92,Vminpu=0.92,Vmaxpu=1.5,model=1,daily=RES3_20,status=variable
new load.3005515731M1 bus1=RML1054479581.1.2.3.0,Phases=3,kv=0.22,kW=0.23082,pf=0.92,Vminpu=0.92,Vmaxpu=1.5,model=1,daily=COM1_3,status=variable
new load.3005551865M1 bus1=RML1051444976.1.2.3.0,Phases=3,kv=0.22,kW=1.99864,pf=0.92,Vminpu=0.92,Vmaxpu=1.5,model=1,daily=RES3_3,status=variable
new load.3005599160M1 bus1=RML1054154599.1.2.3.0,Phases=3,kv=0.22,kW=1.27176,pf=0.92,Vminpu=0.92,Vmaxpu=1.5,model=1,daily=RES3_4,status=variable
new load.3005599197M1 bus1=RML1056424916.1.2.3.0,Phases=3,kv=0.22,kW=0.29344,pf=0.92,Vminpu=0.92,Vmaxpu=1.5,model=1,daily=COM1_4,status=variable
new load.3005640309M1 bus1=RML1054257667.1.2.3.0,Phases=3,kv=0.22,kW=0.9416,pf=0.92,Vminpu=0.92,Vmaxpu=1.5,model=1,daily=RES3_4,status=variable
new load.3005640310M1 bus1=RML1054257667.1.2.3.0,Phases=3,kv=0.22,kW=1.55912,pf=0.92,Vminpu=0.92,Vmaxpu=1.5,model=1,daily=RES3_4,status=variable
new load.3005643008M1 bus1=RML1054581830.1.2.3.0,Phases=3,kv=0.22,kW=3.42756,pf=0.92,Vminpu=0.92,Vmaxpu=1.5,model=1,daily=RES6_6,status=variable
new load.3005643009M1 bus1=RML1054154599.1.2.3.0,Phases=3,kv=0.22,kW=1.04752,pf=0.92,Vminpu=0.92,Vmaxpu=1.5,model=1,daily=RES4_5,status=variable
new load.3005644625M1 bus1=RML1056133688.1.2.3.0,Phases=3,kv=0.22,kW=0.2379,pf=0.92,Vminpu=0.92,Vmaxpu=1.5,model=1,daily=COM1_5,status=variable
new load.3005722740M1 bus1=RML1051444325.1.2.3.0,Phases=3,kv=0.22,kW=0.63392,pf=0.92,Vminpu=0.92,Vmaxpu=1.5,model=1,daily=COM1_6,status=variable
new load.3005795289M1 bus1=RML1054257667.1.2.3.0,Phases=3,kv=0.22,kW=1.23068,pf=0.92,Vminpu=0.92,Vmaxpu=1.5,model=1,daily=RES1_5,status=variable
new load.3005795291M1 bus1=RML1054257667.1.2.3.0,Phases=3,kv=0.22,kW=0.77564,pf=0.92,Vminpu=0.92,Vmaxpu=1.5,model=1,daily=RES2_6,status=variable
new load.3005795292M1 bus1=RML1054257667.1.2.3.0,Phases=3,kv=0.22,kW=0.9508,pf=0.92,Vminpu=0.92,Vmaxpu=1.5,model=1,daily=RES2_6,status=variable
new load.3005795293M1 bus1=RML1054257667.1.2.3.0,Phases=3,kv=0.22,kW=0.8945,pf=0.92,Vminpu=0.92,Vmaxpu=1.5,model=1,daily=RES2_6,status=variable
new load.3005795294M1 bus1=RML1054257667.1.2.3.0,Phases=3,kv=0.22,kW=2.53546,pf=0.92,Vminpu=0.92,Vmaxpu=1.5,model=1,daily=RES3_6,status=variable
new load.3003515043M1 bus1=RML1051447643.1.0,Phases=1,kv=0.127,kW=1.46094,pf=0.92,Vminpu=0.92,Vmaxpu=1.5,model=1,daily=RES2_4,status=variable
new load.3003515045M1 bus1=RML1054220931.1.2.3.0,Phases=3,kv=0.22,kW=3.74934,pf=0.92,Vminpu=0.92,Vmaxpu=1.5,model=1,daily=RES5_5,status=variable
new load.3003886857M1 bus1=RML1054220896.1.2.3.0,Phases=3,kv=0.22,kW=1.494,pf=0.92,Vminpu=0.92,Vmaxpu=1.5,model=1,daily=RES5_12,status=variable
new load.3004388332M1 bus1=RML1054315032.1.2.3.0,Phases=3,kv=0.22,kW=1.06156,pf=0.92,Vminpu=0.92,Vmaxpu=1.5,model=1,daily=RES2_1,status=variable
new load.3005112378M1 bus1=RML1054257674.1.2.3.0,Phases=3,kv=0.22,kW=38.34596,pf=0.92,Vminpu=0.92,Vmaxpu=1.5,model=1,daily=RES6_12,status=variable
new load.3005573835M1 bus1=RML1054154599.1.2.3.0,Phases=3,kv=0.22,kW=1.35756,pf=0.92,Vminpu=0.92,Vmaxpu=1.5,model=1,daily=RES3_3,status=variable
new load.3005573836M1 bus1=RML1054262140.1.2.3.0,Phases=3,kv=0.22,kW=15.67704,pf=0.92,Vminpu=0.92,Vmaxpu=1.5,model=1,daily=RES6_4,status=variable
new load.3005573837M1 bus1=RML1054262140.1.2.3.0,Phases=3,kv=0.22,kW=0.95908,pf=0.92,Vminpu=0.92,Vmaxpu=1.5,model=1,daily=RES2_2,status=variable
new load.3005573838M1 bus1=RML1054262140.1.2.3.0,Phases=3,kv=0.22,kW=3.68382,pf=0.92,Vminpu=0.92,Vmaxpu=1.5,model=1,daily=RES5_5,status=variable
new load.3005573839M1 bus1=RML1054262140.1.2.3.0,Phases=3,kv=0.22,kW=0.23296,pf=0.92,Vminpu=0.92,Vmaxpu=1.5,model=1,daily=RES5_5,status=variable
new load.3005573840M1 bus1=RML1054262140.1.2.3.0,Phases=3,kv=0.22,kW=1.21426,pf=0.92,Vminpu=0.92,Vmaxpu=1.5,model=1,daily=RES3_3,status=variable
new load.3005573842M1 bus1=RML1054262140.1.2.3.0,Phases=3,kv=0.22,kW=2.70452,pf=0.92,Vminpu=0.92,Vmaxpu=1.5,model=1,daily=RES4_4,status=variable
new load.3005573843M1 bus1=RML1054262140.1.2.3.0,Phases=3,kv=0.22,kW=1.77238,pf=0.92,Vminpu=0.92,Vmaxpu=1.5,model=1,daily=RES3_3,status=variable
new load.3005573844M1 bus1=RML1054262140.1.2.3.0,Phases=3,kv=0.22,kW=2.47528,pf=0.92,Vminpu=0.92,Vmaxpu=1.5,model=1,daily=RES5_5,status=variable
new load.3005573845M1 bus1=RML1054262140.1.2.3.0,Phases=3,kv=0.22,kW=4.88506,pf=0.92,Vminpu=0.92,Vmaxpu=1.5,model=1,daily=RES5_5,status=variable
new load.3005573846M1 bus1=RML1054262140.1.2.3.0,Phases=3,kv=0.22,kW=0.02148,pf=0.92,Vminpu=0.92,Vmaxpu=1.5,model=1,daily=RES2_2,status=variable
new load.3005577241M1 bus1=RML1054204684.1.2.3.0,Phases=3,kv=0.22,kW=0.00972,pf=0.92,Vminpu=0.92,Vmaxpu=1.5,model=1,daily=COM1_4,status=variable
new load.3005632807M1 bus1=RML1054581837.1.2.3.0,Phases=3,kv=0.22,kW=15.2505,pf=0.92,Vminpu=0.92,Vmaxpu=1.5,model=1,daily=IND4_1,status=variable
new load.3005688580M1 bus1=RML1054257667.1.2.3.0,Phases=3,kv=0.22,kW=1.2495,pf=0.92,Vminpu=0.92,Vmaxpu=1.5,model=1,daily=RES2_4,status=variable
new load.3005688581M1 bus1=RML1054257667.1.2.3.0,Phases=3,kv=0.22,kW=0.6553,pf=0.92,Vminpu=0.92,Vmaxpu=1.5,model=1,daily=RES1_3,status=variable
new load.3005688582M1 bus1=RML1054257667.1.2.3.0,Phases=3,kv=0.22,kW=1.41238,pf=0.92,Vminpu=0.92,Vmaxpu=1.5,model=1,daily=RES3_4,status=variable
new load.3005732101M1 bus1=RML1051444325.1.2.3.0,Phases=3,kv=0.22,kW=0.21408,pf=0.92,Vminpu=0.92,Vmaxpu=1.5,model=1,daily=COM1_6,status=variable
new load.3005777157M1 bus1=RML1054257667.1.2.3.0,Phases=3,kv=0.22,kW=0.53794,pf=0.92,Vminpu=0.92,Vmaxpu=1.5,model=1,daily=RES2_6,status=variable
new load.3005777158M1 bus1=RML1054257667.1.2.3.0,Phases=3,kv=0.22,kW=0.75062,pf=0.92,Vminpu=0.92,Vmaxpu=1.5,model=1,daily=RES2_6,status=variable
new load.3005716159M1 bus1=RML1051444325.1.2.3.0,Phases=3,kv=0.22,kW=0.74244,pf=0.92,Vminpu=0.92,Vmaxpu=1.5,model=1,daily=COM1_5,status=variable
new load.3005716160M1 bus1=RML1051444325.1.2.3.0,Phases=3,kv=0.22,kW=0.54114,pf=0.92,Vminpu=0.92,Vmaxpu=1.5,model=1,daily=COM1_5,status=variable
new load.3005716161M1 bus1=RML1051444325.1.2.3.0,Phases=3,kv=0.22,kW=0.881,pf=0.92,Vminpu=0.92,Vmaxpu=1.5,model=1,daily=COM1_5,status=variable
new load.3005716162M1 bus1=RML1051444325.1.2.3.0,Phases=3,kv=0.22,kW=1.50472,pf=0.92,Vminpu=0.92,Vmaxpu=1.5,model=1,daily=COM2_5,status=variable
new load.3005716163M1 bus1=RML1051444325.1.2.3.0,Phases=3,kv=0.22,kW=0.83454,pf=0.92,Vminpu=0.92,Vmaxpu=1.5,model=1,daily=COM2_5,status=variable
new load.3005716164M1 bus1=RML1051444325.1.2.3.0,Phases=3,kv=0.22,kW=0.2405,pf=0.92,Vminpu=0.92,Vmaxpu=1.5,model=1,daily=COM1_5,status=variable
new load.3005716165M1 bus1=RML1051444325.1.2.3.0,Phases=3,kv=0.22,kW=1.64592,pf=0.92,Vminpu=0.92,Vmaxpu=1.5,model=1,daily=COM3_3,status=variable
new load.3005716502M1 bus1=RML1056070044.1.2.3.0,Phases=3,kv=0.22,kW=0.35274,pf=0.92,Vminpu=0.92,Vmaxpu=1.5,model=1,daily=RES2_5,status=variable
new load.3005758035M1 bus1=RML1054257667.1.2.3.0,Phases=3,kv=0.22,kW=1.08062,pf=0.92,Vminpu=0.92,Vmaxpu=1.5,model=1,daily=RES2_5,status=variable
new load.3005758036M1 bus1=RML1054257667.1.2.3.0,Phases=3,kv=0.22,kW=1.82006,pf=0.92,Vminpu=0.92,Vmaxpu=1.5,model=1,daily=RES3_6,status=variable
new load.3005759291M1 bus1=RML1054479581.1.2.3.0,Phases=3,kv=0.22,kW=0.68698,pf=0.92,Vminpu=0.92,Vmaxpu=1.5,model=1,daily=COM1_7,status=variable
new load.3005759293M1 bus1=RML1056424916.1.2.3.0,Phases=3,kv=0.22,kW=0.7396,pf=0.92,Vminpu=0.92,Vmaxpu=1.5,model=1,daily=COM1_7,status=variable
new load.3005802574M1 bus1=RML1051444325.1.2.3.0,Phases=3,kv=0.22,kW=1.26544,pf=0.92,Vminpu=0.92,Vmaxpu=1.5,model=1,daily=COM1_8,status=variable
new load.3005802912M1 bus1=RML1054257667.1.2.3.0,Phases=3,kv=0.22,kW=0.71852,pf=0.92,Vminpu=0.92,Vmaxpu=1.5,model=1,daily=RES3_7,status=variable
new load.3005805387M1 bus1=RML1051444325.1.2.3.0,Phases=3,kv=0.22,kW=0.44166,pf=0.92,Vminpu=0.92,Vmaxpu=1.5,model=1,daily=COM1_8,status=variable
new load.3005805748M1 bus1=RML1054257667.1.2.3.0,Phases=3,kv=0.22,kW=0.81318,pf=0.92,Vminpu=0.92,Vmaxpu=1.5,model=1,daily=RES2_6,status=variable
new load.3005805749M1 bus1=RML1054257667.1.2.3.0,Phases=3,kv=0.22,kW=0.76314,pf=0.92,Vminpu=0.92,Vmaxpu=1.5,model=1,daily=RES2_6,status=variable
new load.3005846451M1 bus1=RML1054257667.1.2.3.0,Phases=3,kv=0.22,kW=1.80676,pf=0.92,Vminpu=0.92,Vmaxpu=1.5,model=1,daily=RES3_7,status=variable
new load.3005846453M1 bus1=RML1054257667.1.2.3.0,Phases=3,kv=0.22,kW=1.6184,pf=0.92,Vminpu=0.92,Vmaxpu=1.5,model=1,daily=RES3_7,status=variable
new load.3005847181M1 bus1=RML1056591516.1.2.3.0,Phases=3,kv=0.22,kW=3.4814,pf=0.92,Vminpu=0.92,Vmaxpu=1.5,model=1,daily=RES4_10,status=variable
new load.3005849222M1 bus1=RML1051444325.1.2.3.0,Phases=3,kv=0.22,kW=0.07656,pf=0.92,Vminpu=0.92,Vmaxpu=1.5,model=1,daily=COM1_10,status=variable
new load.3005849223M1 bus1=RML1051444325.1.2.3.0,Phases=3,kv=0.22,kW=0.71022,pf=0.92,Vminpu=0.92,Vmaxpu=1.5,model=1,daily=COM1_10,status=variable
new load.3005894898M1 bus1=RML1051444325.1.2.3.0,Phases=3,kv=0.22,kW=0.01254,pf=0.92,Vminpu=0.92,Vmaxpu=1.5,model=1,daily=COM1_11,status=variable
new load.3005894899M1 bus1=RML1051444325.1.2.3.0,Phases=3,kv=0.22,kW=0.74022,pf=0.92,Vminpu=0.92,Vmaxpu=1.5,model=1,daily=COM1_11,status=variable
new load.3005896028M1 bus1=RML1051444325.1.2.3.0,Phases=3,kv=0.22,kW=0.1882,pf=0.92,Vminpu=0.92,Vmaxpu=1.5,model=1,daily=COM1_11,status=variable
new load.3005391408M1 bus1=RML1054262147.1.2.3.0,Phases=3,kv=0.22,kW=13.47994,pf=0.92,Vminpu=0.92,Vmaxpu=1.5,model=1,daily=RES6_17,status=variable
new load.3005437408M1 bus1=RML1054154599.1.2.3.0,Phases=3,kv=0.22,kW=0.63986,pf=0.92,Vminpu=0.92,Vmaxpu=1.5,model=1,daily=RES3_20,status=variable
new load.3005437409M1 bus1=RML1054154599.1.2.3.0,Phases=3,kv=0.22,kW=0.7715,pf=0.92,Vminpu=0.92,Vmaxpu=1.5,model=1,daily=RES3_20,status=variable
new load.3005437410M1 bus1=RML1054154599.1.2.3.0,Phases=3,kv=0.22,kW=0.4786,pf=0.92,Vminpu=0.92,Vmaxpu=1.5,model=1,daily=RES2_28,status=variable
new load.3005437411M1 bus1=RML1054154599.1.2.3.0,Phases=3,kv=0.22,kW=0.54176,pf=0.92,Vminpu=0.92,Vmaxpu=1.5,model=1,daily=RES5_20,status=variable
new load.3005479080M1 bus1=RML1054154599.1.2.3.0,Phases=3,kv=0.22,kW=1.57308,pf=0.92,Vminpu=0.92,Vmaxpu=1.5,model=1,daily=RES3_2,status=variable
new load.3005479081M1 bus1=RML1054479581.1.2.3.0,Phases=3,kv=0.22,kW=0.06422,pf=0.92,Vminpu=0.92,Vmaxpu=1.5,model=1,daily=COM1_2,status=variable
new load.3005483065M1 bus1=RML1054220980.1.2.3.0,Phases=3,kv=0.22,kW=3.08036,pf=0.92,Vminpu=0.92,Vmaxpu=1.5,model=1,daily=RES4_2,status=variable
new load.3005564758M1 bus1=RML1054479581.1.2.3.0,Phases=3,kv=0.22,kW=0.12242,pf=0.92,Vminpu=0.92,Vmaxpu=1.5,model=1,daily=COM1_4,status=variable
new load.3005566999M1 bus1=RML1054262140.1.2.3.0,Phases=3,kv=0.22,kW=3.44356,pf=0.92,Vminpu=0.92,Vmaxpu=1.5,model=1,daily=RES5_5,status=variable
new load.3005567000M1 bus1=RML1054262140.1.2.3.0,Phases=3,kv=0.22,kW=2.73738,pf=0.92,Vminpu=0.92,Vmaxpu=1.5,model=1,daily=RES5_5,status=variable
new load.3005567001M1 bus1=RML1054262140.1.2.3.0,Phases=3,kv=0.22,kW=1.40282,pf=0.92,Vminpu=0.92,Vmaxpu=1.5,model=1,daily=RES3_3,status=variable
new load.3005567002M1 bus1=RML1054262140.1.2.3.0,Phases=3,kv=0.22,kW=5.86062,pf=0.92,Vminpu=0.92,Vmaxpu=1.5,model=1,daily=RES5_5,status=variable
new load.3005609549M1 bus1=RML1051447657.1.2.0,Phases=2,kv=0.22,kW=2.56374,pf=0.92,Vminpu=0.92,Vmaxpu=1.5,model=1,daily=RES2_3,status=variable
new load.3005651226M1 bus1=RML1054257667.1.2.3.0,Phases=3,kv=0.22,kW=1.46094,pf=0.92,Vminpu=0.92,Vmaxpu=1.5,model=1,daily=RES2_4,status=variable
new load.3005680542M1 bus1=RML1054257667.1.2.3.0,Phases=3,kv=0.22,kW=1.45134,pf=0.92,Vminpu=0.92,Vmaxpu=1.5,model=1,daily=RES2_4,status=variable
new load.3005762913M1 bus1=RML1056070051.1.2.3.0,Phases=3,kv=0.22,kW=2.79848,pf=0.92,Vminpu=0.92,Vmaxpu=1.5,model=1,daily=RES3_6,status=variable
new load.3005809045M1 bus1=RML1051444325.1.2.3.0,Phases=3,kv=0.22,kW=0.52602,pf=0.92,Vminpu=0.92,Vmaxpu=1.5,model=1,daily=COM1_8,status=variable
new load.3005883763M1 bus1=RML1054257667.1.2.3.0,Phases=3,kv=0.22,kW=1.9819,pf=0.92,Vminpu=0.92,Vmaxpu=1.5,model=1,daily=RES4_11,status=variable
new load.3005883764M1 bus1=RML1054257667.1.2.3.0,Phases=3,kv=0.22,kW=1.02882,pf=0.92,Vminpu=0.92,Vmaxpu=1.5,model=1,daily=RES2_7,status=variable
new load.3005883765M1 bus1=RML1054257667.1.2.3.0,Phases=3,kv=0.22,kW=0.68338,pf=0.92,Vminpu=0.92,Vmaxpu=1.5,model=1,daily=RES2_7,status=variable
new load.3005883766M1 bus1=RML1054220007.1.2.3.0,Phases=3,kv=0.22,kW=0.92802,pf=0.92,Vminpu=0.92,Vmaxpu=1.5,model=1,daily=RES5_9,status=variable
new load.3005883767M1 bus1=RML1054220007.1.2.3.0,Phases=3,kv=0.22,kW=1.7716,pf=0.92,Vminpu=0.92,Vmaxpu=1.5,model=1,daily=RES4_11,status=variable
new load.3005883771M1 bus1=RML1056144181.1.2.3.0,Phases=3,kv=0.22,kW=0.88242,pf=0.92,Vminpu=0.92,Vmaxpu=1.5,model=1,daily=COM1_11,status=variable
new load.3005885666M1 bus1=RML1054257667.1.2.3.0,Phases=3,kv=0.22,kW=0.60828,pf=0.92,Vminpu=0.92,Vmaxpu=1.5,model=1,daily=RES2_7,status=variable
new load.3005886997M1 bus1=RML1054257667.1.2.3.0,Phases=3,kv=0.22,kW=2.22442,pf=0.92,Vminpu=0.92,Vmaxpu=1.5,model=1,daily=RES3_8,status=variable
new load.3003551445M1 bus1=RML1054220868.1.2.3.0,Phases=3,kv=0.22,kW=1.75628,pf=0.92,Vminpu=0.92,Vmaxpu=1.5,model=1,daily=RES5_6,status=variable
new load.3003849797M1 bus1=RML1054220994.1.2.3.0,Phases=3,kv=0.22,kW=2.47672,pf=0.92,Vminpu=0.92,Vmaxpu=1.5,model=1,daily=RES5_11,status=variable
new load.3004361079M1 bus1=RML1056617710.1.2.3.0,Phases=3,kv=0.22,kW=6.82422,pf=0.92,Vminpu=0.92,Vmaxpu=1.5,model=1,daily=RES6_17,status=variable
new load.3004984664M1 bus1=RML1054315025.1.2.3.0,Phases=3,kv=0.22,kW=1.50142,pf=0.92,Vminpu=0.92,Vmaxpu=1.5,model=1,daily=RES4_12,status=variable
...
